<?xml version="1.0" encoding="UTF-8" ?>
<?demandware-pipeline version="2.0"?>

<pipeline type="process">
  <branch basename="_ANONYMOUS_BRANCH_1">
    <segment>
      <node>
        <text-node>
          <description>Creates a AuthorizeNet PaymentInstrument and returns 'success'.</description>
        </text-node>
        <node-display width="2" x="1" y="1"/>
      </node>
    </segment>
  </branch>
  <branch basename="Handle">
    <segment>
      <node>
        <start-node call-mode="private" name="Handle" secure="false"/>
        <node-display x="1" y="2"/>
      </node>
      <simple-transition/>
      <node>
        <decision-node condition-key="!empty(CurrentForms.billing.paymentMethods.selectedPaymentMethodID.value)" condition-operator="expr"/>
        <node-display x="0" y="1"/>
        <branch basename="b2" source-connector="yes">
          <transition target-connector="in"/>
          <segment>
            <node>
              <pipelet-node pipelet-name="Assign" pipelet-set-identifier="bc_api">
                <config-property key="Transactional" value="false"/>
                <key-binding alias="CurrentForms.billing.paymentMethods.selectedPaymentMethodID.value" key="From_0"/>
                <key-binding alias="PaymentMethod" key="To_0"/>
                <key-binding alias="null" key="From_1"/>
                <key-binding alias="null" key="To_1"/>
                <key-binding alias="null" key="From_2"/>
                <key-binding alias="null" key="To_2"/>
                <key-binding alias="null" key="From_3"/>
                <key-binding alias="null" key="To_3"/>
                <key-binding alias="null" key="From_4"/>
                <key-binding alias="null" key="To_4"/>
                <key-binding alias="null" key="From_5"/>
                <key-binding alias="null" key="To_5"/>
                <key-binding alias="null" key="From_6"/>
                <key-binding alias="null" key="To_6"/>
                <key-binding alias="null" key="From_7"/>
                <key-binding alias="null" key="To_7"/>
                <key-binding alias="null" key="From_8"/>
                <key-binding alias="null" key="To_8"/>
                <key-binding alias="null" key="From_9"/>
                <key-binding alias="null" key="To_9"/>
              </pipelet-node>
              <node-display x="0" y="1"/>
            </node>
            <simple-transition/>
            <node>
              <pipelet-node pipelet-name="Script" pipelet-set-identifier="bc_api">
                <config-property key="Transactional" value="true"/>
                <config-property key="OnError" value="PIPELET_ERROR"/>
                <config-property key="ScriptFile" value="pipelets/checkout/CreatePaymentInstrument.ds"/>
                <key-binding alias="null" key="ScriptLog"/>
                <key-binding alias="PaymentMethod" key="PaymentType"/>
                <key-binding alias="true" key="RemoveExisting"/>
                <key-binding alias="PaymentInstrument" key="PaymentInstrument"/>
                <key-binding alias="Basket" key="Basket"/>
              </pipelet-node>
              <node-display x="0" y="1"/>
              <branch basename="b2" source-connector="error">
                <transition target-connector="in1" target-path="../+1"/>
              </branch>
            </node>
            <simple-transition/>
            <node>
              <pipelet-node custom-name="Copy the relevant credit card details to the payment instrument" pipelet-name="Assign" pipelet-set-identifier="bc_api">
                <config-property key="Transactional" value="true"/>
                <key-binding alias="CurrentForms.billing.paymentMethods.creditCard.owner.value" key="From_0"/>
                <key-binding alias="PaymentInstrument.creditCardHolder" key="To_0"/>
                <key-binding alias="CurrentForms.billing.paymentMethods.creditCard.number.value" key="From_1"/>
                <key-binding alias="PaymentInstrument.creditCardNumber" key="To_1"/>
                <key-binding alias="CurrentForms.billing.paymentMethods.creditCard.type.value" key="From_2"/>
                <key-binding alias="PaymentInstrument.creditCardType" key="To_2"/>
                <key-binding alias="CurrentForms.billing.paymentMethods.creditCard.expiration.month.value" key="From_3"/>
                <key-binding alias="PaymentInstrument.creditCardExpirationMonth" key="To_3"/>
                <key-binding alias="CurrentForms.billing.paymentMethods.creditCard.expiration.year.value" key="From_4"/>
                <key-binding alias="PaymentInstrument.creditCardExpirationYear" key="To_4"/>
                <key-binding alias="null" key="From_6"/>
                <key-binding alias="null" key="To_6"/>
                <key-binding alias="null" key="From_7"/>
                <key-binding alias="null" key="To_7"/>
                <key-binding alias="null" key="From_8"/>
                <key-binding alias="null" key="To_8"/>
                <key-binding alias="null" key="From_9"/>
                <key-binding alias="null" key="To_9"/>
              </pipelet-node>
              <node-display x="0" y="1"/>
            </node>
            <simple-transition/>
            <node>
              <end-node name="success"/>
              <node-display x="0" y="1"/>
            </node>
          </segment>
        </branch>
      </node>
      <transition target-connector="in2" target-path="./+1">
        <transition-display>
          <bend-point relative-to="source" x="2" y="0"/>
        </transition-display>
      </transition>
    </segment>
    <segment>
      <node>
        <join-node/>
        <node-display x="1" y="2"/>
      </node>
      <simple-transition/>
      <node>
        <end-node name="error"/>
        <node-display x="0" y="2"/>
      </node>
    </segment>
  </branch>
  <branch basename="_ANONYMOUS_BRANCH_3">
    <segment>
      <node>
        <text-node>
          <description>Authorize AuthorizeNet payment and captures amount</description>
        </text-node>
        <node-display width="2" x="5" y="1"/>
      </node>
    </segment>
  </branch>
  <branch basename="Authorize">
    <segment>
      <node>
        <start-node call-mode="private" name="Authorize" secure="false"/>
        <node-display x="5" y="2"/>
      </node>
      <simple-transition/>
      <node>
        <decision-node condition-key="!empty(CurrentForms.billing.paymentMethods.selectedPaymentMethodID.value)" condition-operator="expr"/>
        <node-display x="0" y="1"/>
        <branch basename="b2" source-connector="yes">
          <transition target-connector="in"/>
          <segment>
            <node>
              <pipelet-node pipelet-name="Assign" pipelet-set-identifier="bc_api">
                <config-property key="Transactional" value="false"/>
                <key-binding alias="CurrentForms.billing.paymentMethods.selectedPaymentMethodID.value" key="From_0"/>
                <key-binding alias="PaymentMethod" key="To_0"/>
                <key-binding alias="null" key="From_2"/>
                <key-binding alias="null" key="To_2"/>
                <key-binding alias="null" key="From_3"/>
                <key-binding alias="null" key="To_3"/>
                <key-binding alias="null" key="From_4"/>
                <key-binding alias="null" key="To_4"/>
                <key-binding alias="null" key="From_5"/>
                <key-binding alias="null" key="To_5"/>
                <key-binding alias="null" key="From_6"/>
                <key-binding alias="null" key="To_6"/>
                <key-binding alias="null" key="From_7"/>
                <key-binding alias="null" key="To_7"/>
                <key-binding alias="null" key="From_8"/>
                <key-binding alias="null" key="To_8"/>
                <key-binding alias="null" key="From_9"/>
                <key-binding alias="null" key="To_9"/>
              </pipelet-node>
              <node-display x="0" y="1"/>
            </node>
            <simple-transition/>
            <node>
              <pipelet-node pipelet-name="GetPaymentProcessor" pipelet-set-identifier="bc_api">
                <key-binding alias="dw.order.PaymentMgr.getPaymentMethod(PaymentMethod).paymentProcessor.ID" key="ID"/>
                <key-binding alias="PaymentProcessor" key="PaymentProcessor"/>
              </pipelet-node>
              <node-display x="0" y="1"/>
            </node>
            <simple-transition>
              <transition-display>
                <bend-point relative-to="source" x="0" y="1"/>
              </transition-display>
            </simple-transition>
            <node>
              <pipelet-node custom-name="Just set transaction ID and processor" pipelet-name="Assign" pipelet-set-identifier="bc_api">
                <config-property key="Transactional" value="true"/>
                <key-binding alias="null" key="From_3"/>
                <key-binding alias="null" key="To_3"/>
                <key-binding alias="null" key="From_4"/>
                <key-binding alias="null" key="To_4"/>
                <key-binding alias="null" key="From_5"/>
                <key-binding alias="null" key="To_5"/>
                <key-binding alias="null" key="From_6"/>
                <key-binding alias="null" key="To_6"/>
                <key-binding alias="null" key="From_7"/>
                <key-binding alias="null" key="To_7"/>
                <key-binding alias="null" key="From_8"/>
                <key-binding alias="null" key="To_8"/>
                <key-binding alias="null" key="From_9"/>
                <key-binding alias="null" key="To_9"/>
                <key-binding alias="OrderNo" key="From_0"/>
                <key-binding alias="PaymentInstrument.paymentTransaction.transactionID" key="To_0"/>
                <key-binding alias="PaymentInstrument.paymentTransaction.paymentProcessor" key="To_1"/>
                <key-binding alias="PaymentProcessor" key="From_1"/>
              </pipelet-node>
              <node-display x="0" y="1"/>
            </node>
            <simple-transition/>
            <node>
              <pipelet-node pipelet-name="Script" pipelet-set-identifier="bc_api">
                <config-property key="Transactional" value="true"/>
                <config-property key="OnError" value="PIPELET_ERROR"/>
                <config-property key="ScriptFile" value="pipelets/AuthorizenetCCAuthRequest.ds"/>
                <key-binding alias="null" key="ScriptLog"/>
                <key-binding alias="PaymentInstrument" key="PaymentInstrument"/>
                <key-binding alias="CurrentHttpParameterMap" key="HttpParams"/>
                <key-binding alias="CurrentForms" key="CurrentForms"/>
                <key-binding alias="Order" key="Order"/>
                <key-binding alias="PaymentInstrument" key="PaymentInstrument"/>
                <key-binding alias="AuthorizeNetResponse" key="AuthorizeNetResponse"/>
              </pipelet-node>
              <node-display x="0" y="1"/>
              <branch basename="b2" source-connector="error">
                <transition target-connector="in">
                  <transition-display>
                    <bend-point relative-to="target" x="0" y="-2"/>
                    <bend-point relative-to="target" x="0" y="-1"/>
                  </transition-display>
                </transition>
                <segment>
                  <node>
                    <pipelet-node pipelet-name="Script" pipelet-set-identifier="bc_api">
                      <config-property key="Transactional" value="false"/>
                      <config-property key="OnError" value="PIPELET_ERROR"/>
                      <config-property key="ScriptFile" value="int_forter:pipelets/forter/ForterCallValidate.ds"/>
                      <key-binding alias="null" key="ScriptLog"/>
                      <key-binding alias="Order" key="Order"/>
                      <key-binding alias="ForterResponse" key="JsonResponseOutput"/>
                      <key-binding alias="PlaceOrderError" key="PlaceOrderError"/>
                    </pipelet-node>
                    <node-display x="4" y="1"/>
                    <branch basename="b2" source-connector="error">
                      <transition target-connector="in1" target-path="./+1">
                        <transition-display>
                          <bend-point relative-to="source" x="1" y="0"/>
                          <bend-point relative-to="target" x="1" y="0"/>
                        </transition-display>
                      </transition>
                    </branch>
                  </node>
                  <transition target-connector="in1" target-path="./+1"/>
                </segment>
                <segment>
                  <node>
                    <join-node/>
                    <node-display x="0" y="1"/>
                  </node>
                  <transition target-connector="in1" target-path="../../+1">
                    <transition-display>
                      <bend-point relative-to="target" x="2" y="0"/>
                    </transition-display>
                  </transition>
                </segment>
              </branch>
            </node>
            <simple-transition/>
            <node>
              <pipelet-node pipelet-name="Script" pipelet-set-identifier="bc_api">
                <config-property key="Transactional" value="false"/>
                <config-property key="OnError" value="PIPELET_ERROR"/>
                <config-property key="ScriptFile" value="int_forter:pipelets/forter/ForterCallValidate.ds"/>
                <key-binding alias="null" key="ScriptLog"/>
                <key-binding alias="Order" key="Order"/>
                <key-binding alias="ForterResponse" key="JsonResponseOutput"/>
                <key-binding alias="PlaceOrderError" key="PlaceOrderError"/>
              </pipelet-node>
              <node-display x="0" y="1"/>
              <branch basename="b3" source-connector="error">
                <transition target-connector="in1" target-path="./+1"/>
              </branch>
            </node>
            <transition target-connector="in1" target-path="./+1"/>
          </segment>
          <segment>
            <node>
              <join-node/>
              <node-display x="0" y="1"/>
            </node>
            <simple-transition/>
            <node>
              <decision-node condition-key="ForterResponse.JsonResponseOutput.processorAction === 'skipCapture' || ForterResponse.JsonResponseOutput.processorAction === 'notReviewed'" condition-operator="expr"/>
              <node-display x="-1" y="1"/>
              <branch basename="b2" source-connector="yes">
                <transition target-connector="in1" target-path="./b3.2">
                  <transition-display>
                    <bend-point relative-to="target" x="-2" y="0"/>
                  </transition-display>
                </transition>
              </branch>
            </node>
            <simple-transition>
              <transition-display>
                <bend-point relative-to="source" x="2" y="0"/>
                <bend-point relative-to="target" x="0" y="-1"/>
              </transition-display>
            </simple-transition>
            <node>
              <decision-node condition-key="ForterResponse.JsonResponseOutput.processorAction === 'disabled' || ForterResponse.JsonResponseOutput.processorAction === 'internalError' || ForterResponse.JsonResponseOutput.processorAction === 'capture'" condition-operator="expr"/>
              <node-display x="1" y="1"/>
              <branch basename="b3" source-connector="yes">
                <transition target-connector="in">
                  <transition-display>
                    <bend-point relative-to="source" x="0" y="1"/>
                  </transition-display>
                </transition>
                <segment>
                  <node>
                    <pipelet-node pipelet-name="Script" pipelet-set-identifier="bc_api">
                      <config-property key="Transactional" value="true"/>
                      <config-property key="OnError" value="PIPELET_ERROR"/>
                      <config-property key="ScriptFile" value="pipelets/AuthorizenetCCCaptureRequest.ds"/>
                      <key-binding alias="null" key="ScriptLog"/>
                      <key-binding alias="CurrentForms" key="CurrentForms"/>
                      <key-binding alias="CurrentHttpParameterMap" key="HttpParams"/>
                      <key-binding alias="PaymentInstrument" key="PaymentInstrument"/>
                      <key-binding alias="AuthorizeNetResponse" key="AuthorizeNetResponse"/>
                      <key-binding alias="Order" key="Order"/>
                      <key-binding alias="PaymentInstrument" key="PaymentInstrument"/>
                    </pipelet-node>
                    <node-display x="0" y="1"/>
                    <branch basename="b2" source-connector="error">
                      <transition target-connector="in1" target-path="../+1"/>
                    </branch>
                  </node>
                  <transition target-connector="in1" target-path="./+1"/>
                </segment>
                <segment>
                  <node>
                    <join-node/>
                    <node-display x="0" y="1"/>
                  </node>
                  <simple-transition>
                    <transition-display>
                      <bend-point relative-to="source" x="1" y="0"/>
                    </transition-display>
                  </simple-transition>
                  <node>
                    <end-node name="authorized"/>
                    <node-display orientation="horizontal" x="1" y="0"/>
                  </node>
                </segment>
              </branch>
            </node>
            <transition target-connector="in1" target-path="./+1">
              <transition-display>
                <bend-point relative-to="source" x="2" y="0"/>
              </transition-display>
            </transition>
          </segment>
          <segment>
            <node>
              <join-node/>
              <node-display x="1" y="1"/>
            </node>
            <simple-transition>
              <transition-display>
                <bend-point relative-to="source" x="1" y="0"/>
              </transition-display>
            </simple-transition>
            <node>
              <pipelet-node pipelet-name="Script" pipelet-set-identifier="bc_api">
                <config-property key="Transactional" value="true"/>
                <config-property key="OnError" value="PIPELET_ERROR"/>
                <config-property key="ScriptFile" value="pipelets/AuthorizenetVoidRequest.ds"/>
                <key-binding alias="null" key="ScriptLog"/>
                <key-binding alias="AuthorizeNetResponse" key="AuthorizeNetResponse"/>
                <key-binding alias="CurrentForms" key="CurrentForms"/>
                <key-binding alias="CurrentHttpParameterMap" key="HttpParams"/>
                <key-binding alias="Order" key="Order"/>
                <key-binding alias="PaymentInstrument" key="PaymentInstrument"/>
              </pipelet-node>
              <node-display orientation="horizontal" x="1" y="0"/>
              <branch basename="b2" source-connector="error">
                <transition target-connector="in1" target-path="../+1">
                  <transition-display>
                    <bend-point relative-to="source" x="0" y="1"/>
                    <bend-point relative-to="target" x="0" y="1"/>
                  </transition-display>
                </transition>
              </branch>
            </node>
            <transition target-connector="in1" target-path="../+1"/>
          </segment>
        </branch>
      </node>
      <transition target-connector="in1" target-path="./+1">
        <transition-display>
          <bend-point relative-to="source" x="6" y="0"/>
        </transition-display>
      </transition>
    </segment>
    <segment>
      <node>
        <join-node/>
        <node-display x="3" y="9"/>
      </node>
      <simple-transition>
        <transition-display>
          <bend-point relative-to="source" x="0" y="1"/>
        </transition-display>
      </simple-transition>
      <node>
        <end-node name="error"/>
        <node-display x="0" y="1"/>
      </node>
    </segment>
  </branch>
</pipeline>
